# generated using pymatgen
data_AmH
_symmetry_space_group_name_H-M   'P 1'
_cell_length_a   4.00017400
_cell_length_b   4.00017400
_cell_length_c   4.00017400
_cell_angle_alpha   90.00000000
_cell_angle_beta   90.00000000
_cell_angle_gamma   90.00000000
_symmetry_Int_Tables_number   1
_chemical_formula_structural   AmH
_chemical_formula_sum   'Am4 H4'
_cell_volume   64.00835236
_cell_formula_units_Z   4
loop_
 _symmetry_equiv_pos_site_id
 _symmetry_equiv_pos_as_xyz
  1  'x, y, z'
loop_
 _atom_site_type_symbol
 _atom_site_label
 _atom_site_symmetry_multiplicity
 _atom_site_fract_x
 _atom_site_fract_y
 _atom_site_fract_z
 _atom_site_occupancy
  Am  Am0  1  0.00000000  0.00000000  0.00000000  1
  Am  Am1  1  0.00000000  0.50000000  0.50000000  1
  Am  Am2  1  0.50000000  0.00000000  0.50000000  1
  Am  Am3  1  0.50000000  0.50000000  0.00000000  1
  H  H4  1  0.50000000  0.00000000  0.00000000  1
  H  H5  1  0.50000000  0.50000000  0.50000000  1
  H  H6  1  0.00000000  0.00000000  0.50000000  1
  H  H7  1  0.00000000  0.50000000  0.00000000  1
