# generated using pymatgen
data_Am2Be
_symmetry_space_group_name_H-M   'P 1'
_cell_length_a   4.04589400
_cell_length_b   7.58880400
_cell_length_c   8.86299800
_cell_angle_alpha   90.00000000
_cell_angle_beta   90.00000000
_cell_angle_gamma   90.00000000
_symmetry_Int_Tables_number   1
_chemical_formula_structural   Am2Be
_chemical_formula_sum   'Am24 Be12'
_cell_volume   272.12502870
_cell_formula_units_Z   12
loop_
 _symmetry_equiv_pos_site_id
 _symmetry_equiv_pos_as_xyz
  1  'x, y, z'
loop_
 _atom_site_type_symbol
 _atom_site_label
 _atom_site_symmetry_multiplicity
 _atom_site_fract_x
 _atom_site_fract_y
 _atom_site_fract_z
 _atom_site_occupancy
  Be  Be0  1  0.00000000  0.75000000  0.00000000  1
  Be  Be1  1  0.00000000  0.25000000  0.00000000  1
  Be  Be2  1  0.37923100  0.50000000  0.33216600  1
  Be  Be3  1  0.12076900  0.50000000  0.83216600  1
  Be  Be4  1  0.87923100  0.50000000  0.16783400  1
  Be  Be5  1  0.62076900  0.50000000  0.66783400  1
  Be  Be6  1  0.50000000  0.25000000  0.50000000  1
  Be  Be7  1  0.50000000  0.75000000  0.50000000  1
  Be  Be8  1  0.87923100  0.00000000  0.83216600  1
  Be  Be9  1  0.62076900  0.00000000  0.33216600  1
  Be  Be10  1  0.37923100  0.00000000  0.66783400  1
  Be  Be11  1  0.12076900  0.00000000  0.16783400  1
  Am  Am12  1  0.76639650  0.34687250  0.08886550  1
  Am  Am13  1  0.76639650  0.65312750  0.08886550  1
  Am  Am14  1  0.23360350  0.15312750  0.08886550  1
  Am  Am15  1  0.76639650  0.15312750  0.91113450  1
  Am  Am16  1  0.76951600  0.50000000  0.81574800  1
  Am  Am17  1  0.73048400  0.50000000  0.31574800  1
  Am  Am18  1  0.23048400  0.50000000  0.18425200  1
  Am  Am19  1  0.26951600  0.50000000  0.68425200  1
  Am  Am20  1  0.23360350  0.84687250  0.08886550  1
  Am  Am21  1  0.76639650  0.84687250  0.91113450  1
  Am  Am22  1  0.23360350  0.34687250  0.91113450  1
  Am  Am23  1  0.23360350  0.65312750  0.91113450  1
  Am  Am24  1  0.26639650  0.84687250  0.58886550  1
  Am  Am25  1  0.26639650  0.15312750  0.58886550  1
  Am  Am26  1  0.73360350  0.65312750  0.58886550  1
  Am  Am27  1  0.26639650  0.65312750  0.41113450  1
  Am  Am28  1  0.26951600  0.00000000  0.31574800  1
  Am  Am29  1  0.23048400  0.00000000  0.81574800  1
  Am  Am30  1  0.73048400  0.00000000  0.68425200  1
  Am  Am31  1  0.76951600  0.00000000  0.18425200  1
  Am  Am32  1  0.73360350  0.34687250  0.58886550  1
  Am  Am33  1  0.26639650  0.34687250  0.41113450  1
  Am  Am34  1  0.73360350  0.84687250  0.41113450  1
  Am  Am35  1  0.73360350  0.15312750  0.41113450  1
