# generated using pymatgen
data_Li14Am27(Be2B3)3
_symmetry_space_group_name_H-M   'P 1'
_cell_length_a   7.82895821
_cell_length_b   7.82895821
_cell_length_c   19.13956600
_cell_angle_alpha   90.00000000
_cell_angle_beta   90.00000000
_cell_angle_gamma   120.00000000
_symmetry_Int_Tables_number   1
_chemical_formula_structural   Li14Am27(Be2B3)3
_chemical_formula_sum   'Li28 Am54 Be12 B18'
_cell_volume   1015.94609929
_cell_formula_units_Z   2
loop_
 _symmetry_equiv_pos_site_id
 _symmetry_equiv_pos_as_xyz
  1  'x, y, z'
loop_
 _atom_site_type_symbol
 _atom_site_label
 _atom_site_symmetry_multiplicity
 _atom_site_fract_x
 _atom_site_fract_y
 _atom_site_fract_z
 _atom_site_occupancy
  Li  Li0  1  0.02351400  0.32587000  0.33051000  1
  Li  Li1  1  0.97648600  0.67413000  0.66949000  1
  Li  Li2  1  0.30235600  0.97648600  0.33051000  1
  Li  Li3  1  0.97648600  0.67413000  0.83051000  1
  Li  Li4  1  0.69764400  0.02351400  0.66949000  1
  Li  Li5  1  0.02351400  0.32587000  0.16949000  1
  Li  Li6  1  0.67413000  0.69764400  0.33051000  1
  Li  Li7  1  0.69764400  0.02351400  0.83051000  1
  Li  Li8  1  0.32587000  0.30235600  0.66949000  1
  Li  Li9  1  0.30235600  0.97648600  0.16949000  1
  Li  Li10  1  0.32587000  0.30235600  0.83051000  1
  Li  Li11  1  0.67413000  0.69764400  0.16949000  1
  Li  Li12  1  0.33333333  0.66666667  0.25000000  1
  Li  Li13  1  0.66666667  0.33333333  0.75000000  1
  Li  Li14  1  0.66666667  0.33333333  0.25000000  1
  Li  Li15  1  0.33333333  0.66666667  0.75000000  1
  Li  Li16  1  0.02764400  0.35122000  0.46401800  1
  Li  Li17  1  0.97235600  0.64878000  0.53598200  1
  Li  Li18  1  0.32357600  0.97235600  0.46401800  1
  Li  Li19  1  0.97235600  0.64878000  0.96401800  1
  Li  Li20  1  0.67642400  0.02764400  0.53598200  1
  Li  Li21  1  0.02764400  0.35122000  0.03598200  1
  Li  Li22  1  0.64878000  0.67642400  0.46401800  1
  Li  Li23  1  0.67642400  0.02764400  0.96401800  1
  Li  Li24  1  0.35122000  0.32357600  0.53598200  1
  Li  Li25  1  0.32357600  0.97235600  0.03598200  1
  Li  Li26  1  0.35122000  0.32357600  0.96401800  1
  Li  Li27  1  0.64878000  0.67642400  0.03598200  1
  Be  Be28  1  0.67540200  0.02524600  0.38940800  1
  Be  Be29  1  0.32459800  0.97475400  0.61059200  1
  Be  Be30  1  0.34984400  0.32459800  0.38940800  1
  Be  Be31  1  0.32459800  0.97475400  0.88940800  1
  Be  Be32  1  0.65015600  0.67540200  0.61059200  1
  Be  Be33  1  0.67540200  0.02524600  0.11059200  1
  Be  Be34  1  0.97475400  0.65015600  0.38940800  1
  Be  Be35  1  0.65015600  0.67540200  0.88940800  1
  Be  Be36  1  0.02524600  0.34984400  0.61059200  1
  Be  Be37  1  0.34984400  0.32459800  0.11059200  1
  Be  Be38  1  0.02524600  0.34984400  0.88940800  1
  Be  Be39  1  0.97475400  0.65015600  0.11059200  1
  B  B40  1  0.33333333  0.66666667  0.39283200  1
  B  B41  1  0.66666667  0.33333333  0.60716800  1
  B  B42  1  0.66666667  0.33333333  0.89283200  1
  B  B43  1  0.33333333  0.66666667  0.10716800  1
  B  B44  1  0.00000000  0.00000000  0.40707900  1
  B  B45  1  0.00000000  0.00000000  0.59292100  1
  B  B46  1  0.00000000  0.00000000  0.90707900  1
  B  B47  1  0.00000000  0.00000000  0.09292100  1
  B  B48  1  0.69918500  0.02160100  0.25000000  1
  B  B49  1  0.30081500  0.97839900  0.75000000  1
  B  B50  1  0.32241600  0.30081500  0.25000000  1
  B  B51  1  0.67758400  0.69918500  0.75000000  1
  B  B52  1  0.97839900  0.67758400  0.25000000  1
  B  B53  1  0.02160100  0.32241600  0.75000000  1
  B  B54  1  0.33333333  0.66666667  0.94862500  1
  B  B55  1  0.66666667  0.33333333  0.05137500  1
  B  B56  1  0.66666667  0.33333333  0.44862500  1
  B  B57  1  0.33333333  0.66666667  0.55137500  1
  Am  Am58  1  0.20030300  0.37925600  0.25000000  1
  Am  Am59  1  0.79969700  0.62074400  0.75000000  1
  Am  Am60  1  0.17895300  0.79969700  0.25000000  1
  Am  Am61  1  0.82104700  0.20030300  0.75000000  1
  Am  Am62  1  0.62074400  0.82104700  0.25000000  1
  Am  Am63  1  0.37925600  0.17895300  0.75000000  1
  Am  Am64  1  0.11369500  0.20311400  0.40665000  1
  Am  Am65  1  0.88630500  0.79688600  0.59335000  1
  Am  Am66  1  0.08941900  0.88630500  0.40665000  1
  Am  Am67  1  0.88630500  0.79688600  0.90665000  1
  Am  Am68  1  0.91058100  0.11369500  0.59335000  1
  Am  Am69  1  0.11369500  0.20311400  0.09335000  1
  Am  Am70  1  0.79688600  0.91058100  0.40665000  1
  Am  Am71  1  0.91058100  0.11369500  0.90665000  1
  Am  Am72  1  0.20311400  0.08941900  0.59335000  1
  Am  Am73  1  0.08941900  0.88630500  0.09335000  1
  Am  Am74  1  0.20311400  0.08941900  0.90665000  1
  Am  Am75  1  0.79688600  0.91058100  0.09335000  1
  Am  Am76  1  0.73865700  0.13068100  0.31151700  1
  Am  Am77  1  0.26134300  0.86931900  0.68848300  1
  Am  Am78  1  0.39202400  0.26134300  0.31151700  1
  Am  Am79  1  0.26134300  0.86931900  0.81151700  1
  Am  Am80  1  0.60797600  0.73865700  0.68848300  1
  Am  Am81  1  0.73865700  0.13068100  0.18848300  1
  Am  Am82  1  0.86931900  0.60797600  0.31151700  1
  Am  Am83  1  0.60797600  0.73865700  0.81151700  1
  Am  Am84  1  0.13068100  0.39202400  0.68848300  1
  Am  Am85  1  0.39202400  0.26134300  0.18848300  1
  Am  Am86  1  0.13068100  0.39202400  0.81151700  1
  Am  Am87  1  0.86931900  0.60797600  0.18848300  1
  Am  Am88  1  0.43244900  0.56131900  0.39230500  1
  Am  Am89  1  0.56755100  0.43868100  0.60769500  1
  Am  Am90  1  0.12887000  0.56755100  0.39230500  1
  Am  Am91  1  0.56755100  0.43868100  0.89230500  1
  Am  Am92  1  0.87113000  0.43244900  0.60769500  1
  Am  Am93  1  0.43244900  0.56131900  0.10769500  1
  Am  Am94  1  0.43868100  0.87113000  0.39230500  1
  Am  Am95  1  0.87113000  0.43244900  0.89230500  1
  Am  Am96  1  0.56131900  0.12887000  0.60769500  1
  Am  Am97  1  0.12887000  0.56755100  0.10769500  1
  Am  Am98  1  0.56131900  0.12887000  0.89230500  1
  Am  Am99  1  0.43868100  0.87113000  0.10769500  1
  Am  Am100  1  0.73323100  0.19882000  0.44977900  1
  Am  Am101  1  0.26676900  0.80118000  0.55022100  1
  Am  Am102  1  0.46558900  0.26676900  0.44977900  1
  Am  Am103  1  0.26676900  0.80118000  0.94977900  1
  Am  Am104  1  0.53441100  0.73323100  0.55022100  1
  Am  Am105  1  0.73323100  0.19882000  0.05022100  1
  Am  Am106  1  0.80118000  0.53441100  0.44977900  1
  Am  Am107  1  0.53441100  0.73323100  0.94977900  1
  Am  Am108  1  0.19882000  0.46558900  0.55022100  1
  Am  Am109  1  0.46558900  0.26676900  0.05022100  1
  Am  Am110  1  0.19882000  0.46558900  0.94977900  1
  Am  Am111  1  0.80118000  0.53441100  0.05022100  1
